/*--------------------------------*- C++ -*----------------------------------*\
  =========                 |
  \\      /  F ield         | OpenFOAM: The Open Source CFD Toolbox
   \\    /   O peration     | Website:  https://openfoam.org
    \\  /    A nd           | Version:  8
     \\/     M anipulation  |
\*---------------------------------------------------------------------------*/
FoamFile
{
    version     2.0;
    format      ascii;
    class       volVectorField;
    location    "0";
    object      C;
}
// * * * * * * * * * * * * * * * * * * * * * * * * * * * * * * * * * * * * * //

dimensions      [0 1 0 0 0 0 0];

internalField   nonuniform List<vector> 
16384
(
(0.125 0.00756331 0.0625)
(0.375 0.00756331 0.0625)
(0.625 0.00756331 0.0625)
(0.875 0.00756331 0.0625)
(1.125 0.00756331 0.0625)
(1.375 0.00756331 0.0625)
(1.625 0.00756331 0.0625)
(1.875 0.00756331 0.0625)
(2.125 0.00756331 0.0625)
(2.375 0.00756331 0.0625)
(2.625 0.00756331 0.0625)
(2.875 0.00756331 0.0625)
(3.125 0.00756331 0.0625)
(3.375 0.00756331 0.0625)
(3.625 0.00756331 0.0625)
(3.875 0.00756331 0.0625)
(4.125 0.00756331 0.0625)
(4.375 0.00756331 0.0625)
(4.625 0.00756331 0.0625)
(4.875 0.00756331 0.0625)
(5.125 0.00756331 0.0625)
(5.375 0.00756331 0.0625)
(5.625 0.00756331 0.0625)
(5.875 0.00756331 0.0625)
(6.125 0.00756331 0.0625)
(6.375 0.00756331 0.0625)
(6.625 0.00756331 0.0625)
(6.875 0.00756331 0.0625)
(7.125 0.00756331 0.0625)
(7.375 0.00756331 0.0625)
(7.625 0.00756331 0.0625)
(7.875 0.00756331 0.0625)
(0.125 0.0271056 0.0625)
(0.375 0.0271056 0.0625)
(0.625 0.0271056 0.0625)
(0.875 0.0271056 0.0625)
(1.125 0.0271056 0.0625)
(1.375 0.0271056 0.0625)
(1.625 0.0271056 0.0625)
(1.875 0.0271056 0.0625)
(2.125 0.0271056 0.0625)
(2.375 0.0271056 0.0625)
(2.625 0.0271056 0.0625)
(2.875 0.0271056 0.0625)
(3.125 0.0271056 0.0625)
(3.375 0.0271056 0.0625)
(3.625 0.0271056 0.0625)
(3.875 0.0271056 0.0625)
(4.125 0.0271056 0.0625)
(4.375 0.0271056 0.0625)
(4.625 0.0271056 0.0625)
(4.875 0.0271056 0.0625)
(5.125 0.0271056 0.0625)
(5.375 0.0271056 0.0625)
(5.625 0.0271056 0.0625)
(5.875 0.0271056 0.0625)
(6.125 0.0271056 0.0625)
(6.375 0.0271056 0.0625)
(6.625 0.0271056 0.0625)
(6.875 0.0271056 0.0625)
(7.125 0.0271056 0.0625)
(7.375 0.0271056 0.0625)
(7.625 0.0271056 0.0625)
(7.875 0.0271056 0.0625)
(0.125 0.0580569 0.0625)
(0.375 0.0580569 0.0625)
(0.625 0.0580569 0.0625)
(0.875 0.0580569 0.0625)
(1.125 0.0580569 0.0625)
(1.375 0.0580569 0.0625)
(1.625 0.0580569 0.0625)
(1.875 0.0580569 0.0625)
(2.125 0.0580569 0.0625)
(2.375 0.0580569 0.0625)
(2.625 0.0580569 0.0625)
(2.875 0.0580569 0.0625)
(3.125 0.0580569 0.0625)
(3.375 0.0580569 0.0625)
(3.625 0.0580569 0.0625)
(3.875 0.0580569 0.0625)
(4.125 0.0580569 0.0625)
(4.375 0.0580569 0.0625)
(4.625 0.0580569 0.0625)
(4.875 0.0580569 0.0625)
(5.125 0.0580569 0.0625)
(5.375 0.0580569 0.0625)
(5.625 0.0580569 0.0625)
(5.875 0.0580569 0.0625)
(6.125 0.0580569 0.0625)
(6.375 0.0580569 0.0625)
(6.625 0.0580569 0.0625)
(6.875 0.0580569 0.0625)
(7.125 0.0580569 0.0625)
(7.375 0.0580569 0.0625)
(7.625 0.0580569 0.0625)
(7.875 0.0580569 0.0625)
(0.125 0.107078 0.0625)
(0.375 0.107078 0.0625)
(0.625 0.107078 0.0625)
(0.875 0.107078 0.0625)
(1.125 0.107078 0.0625)
(1.375 0.107078 0.0625)
(1.625 0.107078 0.0625)
(1.875 0.107078 0.0625)
(2.125 0.107078 0.0625)
(2.375 0.107078 0.0625)
(2.625 0.107078 0.0625)
(2.875 0.107078 0.0625)
(3.125 0.107078 0.0625)
(3.375 0.107078 0.0625)
(3.625 0.107078 0.0625)
(3.875 0.107078 0.0625)
(4.125 0.107078 0.0625)
(4.375 0.107078 0.0625)
(4.625 0.107078 0.0625)
(4.875 0.107078 0.0625)
(5.125 0.107078 0.0625)
(5.375 0.107078 0.0625)
(5.625 0.107078 0.0625)
(5.875 0.107078 0.0625)
(6.125 0.107078 0.0625)
(6.375 0.107078 0.0625)
(6.625 0.107078 0.0625)
(6.875 0.107078 0.0625)
(7.125 0.107078 0.0625)
(7.375 0.107078 0.0625)
(7.625 0.107078 0.0625)
(7.875 0.107078 0.0625)
(0.125 0.184719 0.0625)
(0.375 0.184719 0.0625)
(0.625 0.184719 0.0625)
(0.875 0.184719 0.0625)
(1.125 0.184719 0.0625)
(1.375 0.184719 0.0625)
(1.625 0.184719 0.0625)
(1.875 0.184719 0.0625)
(2.125 0.184719 0.0625)
(2.375 0.184719 0.0625)
(2.625 0.184719 0.0625)
(2.875 0.184719 0.0625)
(3.125 0.184719 0.0625)
(3.375 0.184719 0.0625)
(3.625 0.184719 0.0625)
(3.875 0.184719 0.0625)
(4.125 0.184719 0.0625)
(4.375 0.184719 0.0625)
(4.625 0.184719 0.0625)
(4.875 0.184719 0.0625)
(5.125 0.184719 0.0625)
(5.375 0.184719 0.0625)
(5.625 0.184719 0.0625)
(5.875 0.184719 0.0625)
(6.125 0.184719 0.0625)
(6.375 0.184719 0.0625)
(6.625 0.184719 0.0625)
(6.875 0.184719 0.0625)
(7.125 0.184719 0.0625)
(7.375 0.184719 0.0625)
(7.625 0.184719 0.0625)
(7.875 0.184719 0.0625)
(0.125 0.307689 0.0625)
(0.375 0.307689 0.0625)
(0.625 0.307689 0.0625)
(0.875 0.307689 0.0625)
(1.125 0.307689 0.0625)
(1.375 0.307689 0.0625)
(1.625 0.307689 0.0625)
(1.875 0.307689 0.0625)
(2.125 0.307689 0.0625)
(2.375 0.307689 0.0625)
(2.625 0.307689 0.0625)
(2.875 0.307689 0.0625)
(3.125 0.307689 0.0625)
(3.375 0.307689 0.0625)
(3.625 0.307689 0.0625)
(3.875 0.307689 0.0625)
(4.125 0.307689 0.0625)
(4.375 0.307689 0.0625)
(4.625 0.307689 0.0625)
(4.875 0.307689 0.0625)
(5.125 0.307689 0.0625)
(5.375 0.307689 0.0625)
(5.625 0.307689 0.0625)
(5.875 0.307689 0.0625)
(6.125 0.307689 0.0625)
(6.375 0.307689 0.0625)
(6.625 0.307689 0.0625)
(6.875 0.307689 0.0625)
(7.125 0.307689 0.0625)
(7.375 0.307689 0.0625)
(7.625 0.307689 0.0625)
(7.875 0.307689 0.0625)
(0.125 0.50245 0.0625)
(0.375 0.50245 0.0625)
(0.625 0.50245 0.0625)
(0.875 0.50245 0.0625)
(1.125 0.50245 0.0625)
(1.375 0.50245 0.0625)
(1.625 0.50245 0.0625)
(1.875 0.50245 0.0625)
(2.125 0.50245 0.0625)
(2.375 0.50245 0.0625)
(2.625 0.50245 0.0625)
(2.875 0.50245 0.0625)
(3.125 0.50245 0.0625)
(3.375 0.50245 0.0625)
(3.625 0.50245 0.0625)
(3.875 0.50245 0.0625)
(4.125 0.50245 0.0625)
(4.375 0.50245 0.0625)
(4.625 0.50245 0.0625)
(4.875 0.50245 0.0625)
(5.125 0.50245 0.0625)
(5.375 0.50245 0.0625)
(5.625 0.50245 0.0625)
(5.875 0.50245 0.0625)
(6.125 0.50245 0.0625)
(6.375 0.50245 0.0625)
(6.625 0.50245 0.0625)
(6.875 0.50245 0.0625)
(7.125 0.50245 0.0625)
(7.375 0.50245 0.0625)
(7.625 0.50245 0.0625)
(7.875 0.50245 0.0625)
(0.125 0.810917 0.0625)
(0.375 0.810917 0.0625)
(0.625 0.810917 0.0625)
(0.875 0.810917 0.0625)
(1.125 0.810917 0.0625)
(1.375 0.810917 0.0625)
(1.625 0.810917 0.0625)
(1.875 0.810917 0.0625)
(2.125 0.810917 0.0625)
(2.375 0.810917 0.0625)
(2.625 0.810917 0.0625)
(2.875 0.810917 0.0625)
(3.125 0.810917 0.0625)
(3.375 0.810917 0.0625)
(3.625 0.810917 0.0625)
(3.875 0.810917 0.0625)
(4.125 0.810917 0.0625)
(4.375 0.810917 0.0625)
(4.625 0.810917 0.0625)
(4.875 0.810917 0.0625)
(5.125 0.810917 0.0625)
(5.375 0.810917 0.0625)
(5.625 0.810917 0.0625)
(5.875 0.810917 0.0625)
(6.125 0.810917 0.0625)
(6.375 0.810917 0.0625)
(6.625 0.810917 0.0625)
(6.875 0.810917 0.0625)
(7.125 0.810917 0.0625)
(7.375 0.810917 0.0625)
(7.625 0.810917 0.0625)
(7.875 0.810917 0.0625)
(0.125 0.00756331 0.1875)
(0.375 0.00756331 0.1875)
(0.625 0.00756331 0.1875)
(0.875 0.00756331 0.1875)
(1.125 0.00756331 0.1875)
(1.375 0.00756331 0.1875)
(1.625 0.00756331 0.1875)
(1.875 0.00756331 0.1875)
(2.125 0.00756331 0.1875)
(2.375 0.00756331 0.1875)
(2.625 0.00756331 0.1875)
(2.875 0.00756331 0.1875)
(3.125 0.00756331 0.1875)
(3.375 0.00756331 0.1875)
(3.625 0.00756331 0.1875)
(3.875 0.00756331 0.1875)
(4.125 0.00756331 0.1875)
(4.375 0.00756331 0.1875)
(4.625 0.00756331 0.1875)
(4.875 0.00756331 0.1875)
(5.125 0.00756331 0.1875)
(5.375 0.00756331 0.1875)
(5.625 0.00756331 0.1875)
(5.875 0.00756331 0.1875)
(6.125 0.00756331 0.1875)
(6.375 0.00756331 0.1875)
(6.625 0.00756331 0.1875)
(6.875 0.00756331 0.1875)
(7.125 0.00756331 0.1875)
(7.375 0.00756331 0.1875)
(7.625 0.00756331 0.1875)
(7.875 0.00756331 0.1875)
(0.125 0.0271056 0.1875)
(0.375 0.0271056 0.1875)
(0.625 0.0271056 0.1875)
(0.875 0.0271056 0.1875)
(1.125 0.0271056 0.1875)
(1.375 0.0271056 0.1875)
(1.625 0.0271056 0.1875)
(1.875 0.0271056 0.1875)
(2.125 0.0271056 0.1875)
(2.375 0.0271056 0.1875)
(2.625 0.0271056 0.1875)
(2.875 0.0271056 0.1875)
(3.125 0.0271056 0.1875)
(3.375 0.0271056 0.1875)
(3.625 0.0271056 0.1875)
(3.875 0.0271056 0.1875)
(4.125 0.0271056 0.1875)
(4.375 0.0271056 0.1875)
(4.625 0.0271056 0.1875)
(4.875 0.0271056 0.1875)
(5.125 0.0271056 0.1875)
(5.375 0.0271056 0.1875)
(5.625 0.0271056 0.1875)
(5.875 0.0271056 0.1875)
(6.125 0.0271056 0.1875)
(6.375 0.0271056 0.1875)
(6.625 0.0271056 0.1875)
(6.875 0.0271056 0.1875)
(7.125 0.0271056 0.1875)
(7.375 0.0271056 0.1875)
(7.625 0.0271056 0.1875)
(7.875 0.0271056 0.1875)
(0.125 0.0580569 0.1875)
(0.375 0.0580569 0.1875)
(0.625 0.0580569 0.1875)
(0.875 0.0580569 0.1875)
(1.125 0.0580569 0.1875)
(1.375 0.0580569 0.1875)
(1.625 0.0580569 0.1875)
(1.875 0.0580569 0.1875)
(2.125 0.0580569 0.1875)
(2.375 0.0580569 0.1875)
(2.625 0.0580569 0.1875)
(2.875 0.0580569 0.1875)
(3.125 0.0580569 0.1875)
(3.375 0.0580569 0.1875)
(3.625 0.0580569 0.1875)
(3.875 0.0580569 0.1875)
(4.125 0.0580569 0.1875)
(4.375 0.0580569 0.1875)
(4.625 0.0580569 0.1875)
(4.875 0.0580569 0.1875)
(5.125 0.0580569 0.1875)
(5.375 0.0580569 0.1875)
(5.625 0.0580569 0.1875)
(5.875 0.0580569 0.1875)
(6.125 0.0580569 0.1875)
(6.375 0.0580569 0.1875)
(6.625 0.0580569 0.1875)
(6.875 0.0580569 0.1875)
(7.125 0.0580569 0.1875)
(7.375 0.0580569 0.1875)
(7.625 0.0580569 0.1875)
(7.875 0.0580569 0.1875)
(0.125 0.107078 0.1875)
(0.375 0.107078 0.1875)
(0.625 0.107078 0.1875)
(0.875 0.107078 0.1875)
(1.125 0.107078 0.1875)
(1.375 0.107078 0.1875)
(1.625 0.107078 0.1875)
(1.875 0.107078 0.1875)
(2.125 0.107078 0.1875)
(2.375 0.107078 0.1875)
(2.625 0.107078 0.1875)
(2.875 0.107078 0.1875)
(3.125 0.107078 0.1875)
(3.375 0.107078 0.1875)
(3.625 0.107078 0.1875)
(3.875 0.107078 0.1875)
(4.125 0.107078 0.1875)
(4.375 0.107078 0.1875)
(4.625 0.107078 0.1875)
(4.875 0.107078 0.1875)
(5.125 0.107078 0.1875)
(5.375 0.107078 0.1875)
(5.625 0.107078 0.1875)
(5.875 0.107078 0.1875)
(6.125 0.107078 0.1875)
(6.375 0.107078 0.1875)
(6.625 0.107078 0.1875)
(6.875 0.107078 0.1875)
(7.125 0.107078 0.1875)
(7.375 0.107078 0.1875)
(7.625 0.107078 0.1875)
(7.875 0.107078 0.1875)
(0.125 0.184719 0.1875)
(0.375 0.184719 0.1875)
(0.625 0.184719 0.1875)
(0.875 0.184719 0.1875)
(1.125 0.184719 0.1875)
(1.375 0.184719 0.1875)
(1.625 0.184719 0.1875)
(1.875 0.184719 0.1875)
(2.125 0.184719 0.1875)
(2.375 0.184719 0.1875)
(2.625 0.184719 0.1875)
(2.875 0.184719 0.1875)
(3.125 0.184719 0.1875)
(3.375 0.184719 0.1875)
(3.625 0.184719 0.1875)
(3.875 0.184719 0.1875)
(4.125 0.184719 0.1875)
(4.375 0.184719 0.1875)
(4.625 0.184719 0.1875)
(4.875 0.184719 0.1875)
(5.125 0.184719 0.1875)
(5.375 0.184719 0.1875)
(5.625 0.184719 0.1875)
(5.875 0.184719 0.1875)
(6.125 0.184719 0.1875)
(6.375 0.184719 0.1875)
(6.625 0.184719 0.1875)
(6.875 0.184719 0.1875)
(7.125 0.184719 0.1875)
(7.375 0.184719 0.1875)
(7.625 0.184719 0.1875)
(7.875 0.184719 0.1875)
(0.125 0.307689 0.1875)
(0.375 0.307689 0.1875)
(0.625 0.307689 0.1875)
(0.875 0.307689 0.1875)
(1.125 0.307689 0.1875)
(1.375 0.307689 0.1875)
(1.625 0.307689 0.1875)
(1.875 0.307689 0.1875)
(2.125 0.307689 0.1875)
(2.375 0.307689 0.1875)
(2.625 0.307689 0.1875)
(2.875 0.307689 0.1875)
(3.125 0.307689 0.1875)
(3.375 0.307689 0.1875)
(3.625 0.307689 0.1875)
(3.875 0.307689 0.1875)
(4.125 0.307689 0.1875)
(4.375 0.307689 0.1875)
(4.625 0.307689 0.1875)
(4.875 0.307689 0.1875)
(5.125 0.307689 0.1875)
(5.375 0.307689 0.1875)
(5.625 0.307689 0.1875)
(5.875 0.307689 0.1875)
(6.125 0.307689 0.1875)
(6.375 0.307689 0.1875)
(6.625 0.307689 0.1875)
(6.875 0.307689 0.1875)
(7.125 0.307689 0.1875)
(7.375 0.307689 0.1875)
(7.625 0.307689 0.1875)
(7.875 0.307689 0.1875)
(0.125 0.50245 0.1875)
(0.375 0.50245 0.1875)
(0.625 0.50245 0.1875)
(0.875 0.50245 0.1875)
(1.125 0.50245 0.1875)
(1.375 0.50245 0.1875)
(1.625 0.50245 0.1875)
(1.875 0.50245 0.1875)
(2.125 0.50245 0.1875)
(2.375 0.50245 0.1875)
(2.625 0.50245 0.1875)
(2.875 0.50245 0.1875)
(3.125 0.50245 0.1875)
(3.375 0.50245 0.1875)
(3.625 0.50245 0.1875)
(3.875 0.50245 0.1875)
(4.125 0.50245 0.1875)
(4.375 0.50245 0.1875)
(4.625 0.50245 0.1875)
(4.875 0.50245 0.1875)
(5.125 0.50245 0.1875)
(5.375 0.50245 0.1875)
(5.625 0.50245 0.1875)
(5.875 0.50245 0.1875)
(6.125 0.50245 0.1875)
(6.375 0.50245 0.1875)
(6.625 0.50245 0.1875)
(6.875 0.50245 0.1875)
(7.125 0.50245 0.1875)
(7.375 0.50245 0.1875)
(7.625 0.50245 0.1875)
(7.875 0.50245 0.1875)
(0.125 0.810917 0.1875)
(0.375 0.810917 0.1875)
(0.625 0.810917 0.1875)
(0.875 0.810917 0.1875)
(1.125 0.810917 0.1875)
(1.375 0.810917 0.1875)
(1.625 0.810917 0.1875)
(1.875 0.810917 0.1875)
(2.125 0.810917 0.1875)
(2.375 0.810917 0.1875)
(2.625 0.810917 0.1875)
(2.875 0.810917 0.1875)
(3.125 0.810917 0.1875)
(3.375 0.810917 0.1875)
(3.625 0.810917 0.1875)
(3.875 0.810917 0.1875)
(4.125 0.810917 0.1875)
(4.375 0.810917 0.1875)
(4.625 0.810917 0.1875)
(4.875 0.810917 0.1875)
(5.125 0.810917 0.1875)
(5.375 0.810917 0.1875)
(5.625 0.810917 0.1875)
(5.875 0.810917 0.1875)
(6.125 0.810917 0.1875)
(6.375 0.810917 0.1875)
(6.625 0.810917 0.1875)
(6.875 0.810917 0.1875)
(7.125 0.810917 0.1875)
(7.375 0.810917 0.1875)
(7.625 0.810917 0.1875)
(7.875 0.810917 0.1875)
(0.125 0.00756331 0.3125)
(0.375 0.00756331 0.3125)
(0.625 0.00756331 0.3125)
(0.875 0.00756331 0.3125)
(1.125 0.00756331 0.3125)
(1.375 0.00756331 0.3125)
(1.625 0.00756331 0.3125)
(1.875 0.00756331 0.3125)
(2.125 0.00756331 0.3125)
(2.375 0.00756331 0.3125)
(2.625 0.00756331 0.3125)
(2.875 0.00756331 0.3125)
(3.125 0.00756331 0.3125)
(3.375 0.00756331 0.3125)
(3.625 0.00756331 0.3125)
(3.875 0.00756331 0.3125)
(4.125 0.00756331 0.3125)
(4.375 0.00756331 0.3125)
(4.625 0.00756331 0.3125)
(4.875 0.00756331 0.3125)
(5.125 0.00756331 0.3125)
(5.375 0.00756331 0.3125)
(5.625 0.00756331 0.3125)
(5.875 0.00756331 0.3125)
(6.125 0.00756331 0.3125)
(6.375 0.00756331 0.3125)
(6.625 0.00756331 0.3125)
(6.875 0.00756331 0.3125)
(7.125 0.00756331 0.3125)
(7.375 0.00756331 0.3125)
(7.625 0.00756331 0.3125)
(7.875 0.00756331 0.3125)
(0.125 0.0271056 0.3125)
(0.375 0.0271056 0.3125)
(0.625 0.0271056 0.3125)
(0.875 0.0271056 0.3125)
(1.125 0.0271056 0.3125)
(1.375 0.0271056 0.3125)
(1.625 0.0271056 0.3125)
(1.875 0.0271056 0.3125)
(2.125 0.0271056 0.3125)
(2.375 0.0271056 0.3125)
(2.625 0.0271056 0.3125)
(2.875 0.0271056 0.3125)
(3.125 0.0271056 0.3125)
(3.375 0.0271056 0.3125)
(3.625 0.0271056 0.3125)
(3.875 0.0271056 0.3125)
(4.125 0.0271056 0.3125)
(4.375 0.0271056 0.3125)
(4.625 0.0271056 0.3125)
(4.875 0.0271056 0.3125)
(5.125 0.0271056 0.3125)
(5.375 0.0271056 0.3125)
(5.625 0.0271056 0.3125)
(5.875 0.0271056 0.3125)
(6.125 0.0271056 0.3125)
(6.375 0.0271056 0.3125)
(6.625 0.0271056 0.3125)
(6.875 0.0271056 0.3125)
(7.125 0.0271056 0.3125)
(7.375 0.0271056 0.3125)
(7.625 0.0271056 0.3125)
(7.875 0.0271056 0.3125)
(0.125 0.0580569 0.3125)
(0.375 0.0580569 0.3125)
(0.625 0.0580569 0.3125)
(0.875 0.0580569 0.3125)
(1.125 0.0580569 0.3125)
(1.375 0.0580569 0.3125)
(1.625 0.0580569 0.3125)
(1.875 0.0580569 0.3125)
(2.125 0.0580569 0.3125)
(2.375 0.0580569 0.3125)
(2.625 0.0580569 0.3125)
(2.875 0.0580569 0.3125)
(3.125 0.0580569 0.3125)
(3.375 0.0580569 0.3125)
(3.625 0.0580569 0.3125)
(3.875 0.0580569 0.3125)
(4.125 0.0580569 0.3125)
(4.375 0.0580569 0.3125)
(4.625 0.0580569 0.3125)
(4.875 0.0580569 0.3125)
(5.125 0.0580569 0.3125)
(5.375 0.0580569 0.3125)
(5.625 0.0580569 0.3125)
(5.875 0.0580569 0.3125)
(6.125 0.0580569 0.3125)
(6.375 0.0580569 0.3125)
(6.625 0.0580569 0.3125)
(6.875 0.0580569 0.3125)
(7.125 0.0580569 0.3125)
(7.375 0.0580569 0.3125)
(7.625 0.0580569 0.3125)
(7.875 0.0580569 0.3125)
(0.125 0.107078 0.3125)
(0.375 0.107078 0.3125)
(0.625 0.107078 0.3125)
(0.875 0.107078 0.3125)
(1.125 0.107078 0.3125)
(1.375 0.107078 0.3125)
(1.625 0.107078 0.3125)
(1.875 0.107078 0.3125)
(2.125 0.107078 0.3125)
(2.375 0.107078 0.3125)
(2.625 0.107078 0.3125)
(2.875 0.107078 0.3125)
(3.125 0.107078 0.3125)
(3.375 0.107078 0.3125)
(3.625 0.107078 0.3125)
(3.875 0.107078 0.3125)
(4.125 0.107078 0.3125)
(4.375 0.107078 0.3125)
(4.625 0.107078 0.3125)
(4.875 0.107078 0.3125)
(5.125 0.107078 0.3125)
(5.375 0.107078 0.3125)
(5.625 0.107078 0.3125)
(5.875 0.107078 0.3125)
(6.125 0.107078 0.3125)
(6.375 0.107078 0.3125)
(6.625 0.107078 0.3125)
(6.875 0.107078 0.3125)
(7.125 0.107078 0.3125)
(7.375 0.107078 0.3125)
(7.625 0.107078 0.3125)
(7.875 0.107078 0.3125)
(0.125 0.184719 0.3125)
(0.375 0.184719 0.3125)
(0.625 0.184719 0.3125)
(0.875 0.184719 0.3125)
(1.125 0.184719 0.3125)
(1.375 0.184719 0.3125)
(1.625 0.184719 0.3125)
(1.875 0.184719 0.3125)
(2.125 0.184719 0.3125)
(2.375 0.184719 0.3125)
(2.625 0.184719 0.3125)
(2.875 0.184719 0.3125)
(3.125 0.184719 0.3125)
(3.375 0.184719 0.3125)
(3.625 0.184719 0.3125)
(3.875 0.184719 0.3125)
(4.125 0.184719 0.3125)
(4.375 0.184719 0.3125)
(4.625 0.184719 0.3125)
(4.875 0.184719 0.3125)
(5.125 0.184719 0.3125)
(5.375 0.184719 0.3125)
(5.625 0.184719 0.3125)
(5.875 0.184719 0.3125)
(6.125 0.184719 0.3125)
(6.375 0.184719 0.3125)
(6.625 0.184719 0.3125)
(6.875 0.184719 0.3125)
(7.125 0.184719 0.3125)
(7.375 0.184719 0.3125)
(7.625 0.184719 0.3125)
(7.875 0.184719 0.3125)
(0.125 0.307689 0.3125)
(0.375 0.307689 0.3125)
(0.625 0.307689 0.3125)
(0.875 0.307689 0.3125)
(1.125 0.307689 0.3125)
(1.375 0.307689 0.3125)
(1.625 0.307689 0.3125)
(1.875 0.307689 0.3125)
(2.125 0.307689 0.3125)
(2.375 0.307689 0.3125)
(2.625 0.307689 0.3125)
(2.875 0.307689 0.3125)
(3.125 0.307689 0.3125)
(3.375 0.307689 0.3125)
(3.625 0.307689 0.3125)
(3.875 0.307689 0.3125)
(4.125 0.307689 0.3125)
(4.375 0.307689 0.3125)
(4.625 0.307689 0.3125)
(4.875 0.307689 0.3125)
(5.125 0.307689 0.3125)
(5.375 0.307689 0.3125)
(5.625 0.307689 0.3125)
(5.875 0.307689 0.3125)
(6.125 0.307689 0.3125)
(6.375 0.307689 0.3125)
(6.625 0.307689 0.3125)
(6.875 0.307689 0.3125)
(7.125 0.307689 0.3125)
(7.375 0.307689 0.3125)
(7.625 0.307689 0.3125)
(7.875 0.307689 0.3125)
(0.125 0.50245 0.3125)
(0.375 0.50245 0.3125)
(0.625 0.50245 0.3125)
(0.875 0.50245 0.3125)
(1.125 0.50245 0.3125)
(1.375 0.50245 0.3125)
(1.625 0.50245 0.3125)
(1.875 0.50245 0.3125)
(2.125 0.50245 0.3125)
(2.375 0.50245 0.3125)
(2.625 0.50245 0.3125)
(2.875 0.50245 0.3125)
(3.125 0.50245 0.3125)
(3.375 0.50245 0.3125)
(3.625 0.50245 0.3125)
(3.875 0.50245 0.3125)
(4.125 0.50245 0.3125)
(4.375 0.50245 0.3125)
(4.625 0.50245 0.3125)
(4.875 0.50245 0.3125)
(5.125 0.50245 0.3125)
(5.375 0.50245 0.3125)
(5.625 0.50245 0.3125)
(5.875 0.50245 0.3125)
(6.125 0.50245 0.3125)
(6.375 0.50245 0.3125)
(6.625 0.50245 0.3125)
(6.875 0.50245 0.3125)
(7.125 0.50245 0.3125)
(7.375 0.50245 0.3125)
(7.625 0.50245 0.3125)
(7.875 0.50245 0.3125)
(0.125 0.810917 0.3125)
(0.375 0.810917 0.3125)
(0.625 0.810917 0.3125)
(0.875 0.810917 0.3125)
(1.125 0.810917 0.3125)
(1.375 0.810917 0.3125)
(1.625 0.810917 0.3125)
(1.875 0.810917 0.3125)
(2.125 0.810917 0.3125)
(2.375 0.810917 0.3125)
(2.625 0.810917 0.3125)
(2.875 0.810917 0.3125)
(3.125 0.810917 0.3125)
(3.375 0.810917 0.3125)
(3.625 0.810917 0.3125)
(3.875 0.810917 0.3125)
(4.125 0.810917 0.3125)
(4.375 0.810917 0.3125)
(4.625 0.810917 0.3125)
(4.875 0.810917 0.3125)
(5.125 0.810917 0.3125)
(5.375 0.810917 0.3125)
(5.625 0.810917 0.3125)
(5.875 0.810917 0.3125)
(6.125 0.810917 0.3125)
(6.375 0.810917 0.3125)
(6.625 0.810917 0.3125)
(6.875 0.810917 0.3125)
(7.125 0.810917 0.3125)
(7.375 0.810917 0.3125)
(7.625 0.810917 0.3125)
(7.875 0.810917 0.3125)
(0.125 0.00756331 0.4375)
(0.375 0.00756331 0.4375)
(0.625 0.00756331 0.4375)
(0.875 0.00756331 0.4375)
(1.125 0.00756331 0.4375)
(1.375 0.00756331 0.4375)
(1.625 0.00756331 0.4375)
(1.875 0.00756331 0.4375)
(2.125 0.00756331 0.4375)
(2.375 0.00756331 0.4375)
(2.625 0.00756331 0.4375)
(2.875 0.00756331 0.4375)
(3.125 0.00756331 0.4375)
(3.375 0.00756331 0.4375)
(3.625 0.00756331 0.4375)
(3.875 0.00756331 0.4375)
(4.125 0.00756331 0.4375)
(4.375 0.00756331 0.4375)
(4.625 0.00756331 0.4375)
(4.875 0.00756331 0.4375)
(5.125 0.00756331 0.4375)
(5.375 0.00756331 0.4375)
(5.625 0.00756331 0.4375)
(5.875 0.00756331 0.4375)
(6.125 0.00756331 0.4375)
(6.375 0.00756331 0.4375)
(6.625 0.00756331 0.4375)
(6.875 0.00756331 0.4375)
(7.125 0.00756331 0.4375)
(7.375 0.00756331 0.4375)
(7.625 0.00756331 0.4375)
(7.875 0.00756331 0.4375)
(0.125 0.0271056 0.4375)
(0.375 0.0271056 0.4375)
(0.625 0.0271056 0.4375)
(0.875 0.0271056 0.4375)
(1.125 0.0271056 0.4375)
(1.375 0.0271056 0.4375)
(1.625 0.0271056 0.4375)
(1.875 0.0271056 0.4375)
(2.125 0.0271056 0.4375)
(2.375 0.0271056 0.4375)
(2.625 0.0271056 0.4375)
(2.875 0.0271056 0.4375)
(3.125 0.0271056 0.4375)
(3.375 0.0271056 0.4375)
(3.625 0.0271056 0.4375)
(3.875 0.0271056 0.4375)
(4.125 0.0271056 0.4375)
(4.375 0.0271056 0.4375)
(4.625 0.0271056 0.4375)
(4.875 0.0271056 0.4375)
(5.125 0.0271056 0.4375)
(5.375 0.0271056 0.4375)
(5.625 0.0271056 0.4375)
(5.875 0.0271056 0.4375)
(6.125 0.0271056 0.4375)
(6.375 0.0271056 0.4375)
(6.625 0.0271056 0.4375)
(6.875 0.0271056 0.4375)
(7.125 0.0271056 0.4375)
(7.375 0.0271056 0.4375)
(7.625 0.0271056 0.4375)
(7.875 0.0271056 0.4375)
(0.125 0.0580569 0.4375)
(0.375 0.0580569 0.4375)
(0.625 0.0580569 0.4375)
(0.875 0.0580569 0.4375)
(1.125 0.0580569 0.4375)
(1.375 0.0580569 0.4375)
(1.625 0.0580569 0.4375)
(1.875 0.0580569 0.4375)
(2.125 0.0580569 0.4375)
(2.375 0.0580569 0.4375)
(2.625 0.0580569 0.4375)
(2.875 0.0580569 0.4375)
(3.125 0.0580569 0.4375)
(3.375 0.0580569 0.4375)
(3.625 0.0580569 0.4375)
(3.875 0.0580569 0.4375)
(4.125 0.0580569 0.4375)
(4.375 0.0580569 0.4375)
(4.625 0.0580569 0.4375)
(4.875 0.0580569 0.4375)
(5.125 0.0580569 0.4375)
(5.375 0.0580569 0.4375)
(5.625 0.0580569 0.4375)
(5.875 0.0580569 0.4375)
(6.125 0.0580569 0.4375)
(6.375 0.0580569 0.4375)
(6.625 0.0580569 0.4375)
(6.875 0.0580569 0.4375)
(7.125 0.0580569 0.4375)
(7.375 0.0580569 0.4375)
(7.625 0.0580569 0.4375)
(7.875 0.0580569 0.4375)
(0.125 0.107078 0.4375)
(0.375 0.107078 0.4375)
(0.625 0.107078 0.4375)
(0.875 0.107078 0.4375)
(1.125 0.107078 0.4375)
(1.375 0.107078 0.4375)
(1.625 0.107078 0.4375)
(1.875 0.107078 0.4375)
(2.125 0.107078 0.4375)
(2.375 0.107078 0.4375)
(2.625 0.107078 0.4375)
(2.875 0.107078 0.4375)
(3.125 0.107078 0.4375)
(3.375 0.107078 0.4375)
(3.625 0.107078 0.4375)
(3.875 0.107078 0.4375)
(4.125 0.107078 0.4375)
(4.375 0.107078 0.4375)
(4.625 0.107078 0.4375)
(4.875 0.107078 0.4375)
(5.125 0.107078 0.4375)
(5.375 0.107078 0.4375)
(5.625 0.107078 0.4375)
(5.875 0.107078 0.4375)
(6.125 0.107078 0.4375)
(6.375 0.107078 0.4375)
(6.625 0.107078 0.4375)
(6.875 0.107078 0.4375)
(7.125 0.107078 0.4375)
(7.375 0.107078 0.4375)
(7.625 0.107078 0.4375)
(7.875 0.107078 0.4375)
(0.125 0.184719 0.4375)
(0.375 0.184719 0.4375)
(0.625 0.184719 0.4375)
(0.875 0.184719 0.4375)
(1.125 0.184719 0.4375)
(1.375 0.184719 0.4375)
(1.625 0.184719 0.4375)
(1.875 0.184719 0.4375)
(2.125 0.184719 0.4375)
(2.375 0.184719 0.4375)
(2.625 0.184719 0.4375)
(2.875 0.184719 0.4375)
(3.125 0.184719 0.4375)
(3.375 0.184719 0.4375)
(3.625 0.184719 0.4375)
(3.875 0.184719 0.4375)
(4.125 0.184719 0.4375)
(4.375 0.184719 0.4375)
(4.625 0.184719 0.4375)
(4.875 0.184719 0.4375)
(5.125 0.184719 0.4375)
(5.375 0.184719 0.4375)
(5.625 0.184719 0.4375)
(5.875 0.184719 0.4375)
(6.125 0.184719 0.4375)
(6.375 0.184719 0.4375)
(6.625 0.184719 0.4375)
(6.875 0.184719 0.4375)
(7.125 0.184719 0.4375)
(7.375 0.184719 0.4375)
(7.625 0.184719 0.4375)
(7.875 0.184719 0.4375)
(0.125 0.307689 0.4375)
(0.375 0.307689 0.4375)
(0.625 0.307689 0.4375)
(0.875 0.307689 0.4375)
(1.125 0.307689 0.4375)
(1.375 0.307689 0.4375)
(1.625 0.307689 0.4375)
(1.875 0.307689 0.4375)
(2.125 0.307689 0.4375)
(2.375 0.307689 0.4375)
(2.625 0.307689 0.4375)
(2.875 0.307689 0.4375)
(3.125 0.307689 0.4375)
(3.375 0.307689 0.4375)
(3.625 0.307689 0.4375)
(3.875 0.307689 0.4375)
(4.125 0.307689 0.4375)
(4.375 0.307689 0.4375)
(4.625 0.307689 0.4375)
(4.875 0.307689 0.4375)
(5.125 0.307689 0.4375)
(5.375 0.307689 0.4375)
(5.625 0.307689 0.4375)
(5.875 0.307689 0.4375)
(6.125 0.307689 0.4375)
(6.375 0.307689 0.4375)
(6.625 0.307689 0.4375)
(6.875 0.307689 0.4375)
(7.125 0.307689 0.4375)
(7.375 0.307689 0.4375)
(7.625 0.307689 0.4375)
(7.875 0.307689 0.4375)
(0.125 0.50245 0.4375)
(0.375 0.50245 0.4375)
(0.625 0.50245 0.4375)
(0.875 0.50245 0.4375)
(1.125 0.50245 0.4375)
(1.375 0.50245 0.4375)
(1.625 0.50245 0.4375)
(1.875 0.50245 0.4375)
(2.125 0.50245 0.4375)
(2.375 0.50245 0.4375)
(2.625 0.50245 0.4375)
(2.875 0.50245 0.4375)
(3.125 0.50245 0.4375)
(3.375 0.50245 0.4375)
(3.625 0.50245 0.4375)
(3.875 0.50245 0.4375)
(4.125 0.50245 0.4375)
(4.375 0.50245 0.4375)
(4.625 0.50245 0.4375)
(4.875 0.50245 0.4375)
(5.125 0.50245 0.4375)
(5.375 0.50245 0.4375)
(5.625 0.50245 0.4375)
(5.875 0.50245 0.4375)
(6.125 0.50245 0.4375)
(6.375 0.50245 0.4375)
(6.625 0.50245 0.4375)
(6.875 0.50245 0.4375)
(7.125 0.50245 0.4375)
(7.375 0.50245 0.4375)
(7.625 0.50245 0.4375)
(7.875 0.50245 0.4375)
(0.125 0.810917 0.4375)
(0.375 0.810917 0.4375)
(0.625 0.810917 0.4375)
(0.875 0.810917 0.4375)
(1.125 0.810917 0.4375)
(1.375 0.810917 0.4375)
(1.625 0.810917 0.4375)
(1.875 0.810917 0.4375)
(2.125 0.810917 0.4375)
(2.375 0.810917 0.4375)
(2.625 0.810917 0.4375)
(2.875 0.810917 0.4375)
(3.125 0.810917 0.4375)
(3.375 0.810917 0.4375)
(3.625 0.810917 0.4375)
(3.875 0.810917 0.4375)
(4.125 0.810917 0.4375)
(4.375 0.810917 0.4375)
(4.625 0.810917 0.4375)
(4.875 0.810917 0.4375)
(5.125 0.810917 0.4375)
(5.375 0.810917 0.4375)
(5.625 0.810917 0.4375)
(5.875 0.810917 0.4375)
(6.125 0.810917 0.4375)
(6.375 0.810917 0.4375)
(6.625 0.810917 0.4375)
(6.875 0.810917 0.4375)
(7.125 0.810917 0.4375)
(7.375 0.810917 0.4375)
(7.625 0.810917 0.4375)
(7.875 0.810917 0.4375)
(0.125 0.00756331 0.5625)
(0.375 0.00756331 0.5625)
(0.625 0.00756331 0.5625)
(0.875 0.00756331 0.5625)
(1.125 0.00756331 0.5625)
(1.375 0.00756331 0.5625)
(1.625 0.00756331 0.5625)
(1.875 0.00756331 0.5625)
(2.125 0.00756331 0.5625)
(2.375 0.00756331 0.5625)
(2.625 0.00756331 0.5625)
(2.875 0.00756331 0.5625)
(3.125 0.00756331 0.5625)
(3.375 0.00756331 0.5625)
(3.625 0.00756331 0.5625)
(3.875 0.00756331 0.5625)
(4.125 0.00756331 0.5625)
(4.375 0.00756331 0.5625)
(4.625 0.00756331 0.5625)
(4.875 0.00756331 0.5625)
(5.125 0.00756331 0.5625)
(5.375 0.00756331 0.5625)
(5.625 0.00756331 0.5625)
(5.875 0.00756331 0.5625)
(6.125 0.00756331 0.5625)
(6.375 0.00756331 0.5625)
(6.625 0.00756331 0.5625)
(6.875 0.00756331 0.5625)
(7.125 0.00756331 0.5625)
(7.375 0.00756331 0.5625)
(7.625 0.00756331 0.5625)
(7.875 0.00756331 0.5625)
(0.125 0.0271056 0.5625)
(0.375 0.0271056 0.5625)
(0.625 0.0271056 0.5625)
(0.875 0.0271056 0.5625)
(1.125 0.0271056 0.5625)
(1.375 0.0271056 0.5625)
(1.625 0.0271056 0.5625)
(1.875 0.0271056 0.5625)
(2.125 0.0271056 0.5625)
(2.375 0.0271056 0.5625)
(2.625 0.0271056 0.5625)
(2.875 0.0271056 0.5625)
(3.125 0.0271056 0.5625)
(3.375 0.0271056 0.5625)
(3.625 0.0271056 0.5625)
(3.875 0.0271056 0.5625)
(4.125 0.0271056 0.5625)
(4.375 0.0271056 0.5625)
(4.625 0.0271056 0.5625)
(4.875 0.0271056 0.5625)
(5.125 0.0271056 0.5625)
(5.375 0.0271056 0.5625)
(5.625 0.0271056 0.5625)
(5.875 0.0271056 0.5625)
(6.125 0.0271056 0.5625)
(6.375 0.0271056 0.5625)
(6.625 0.0271056 0.5625)
(6.875 0.0271056 0.5625)
(7.125 0.0271056 0.5625)
(7.375 0.0271056 0.5625)
(7.625 0.0271056 0.5625)
(7.875 0.0271056 0.5625)
(0.125 0.0580569 0.5625)
(0.375 0.0580569 0.5625)
(0.625 0.0580569 0.5625)
(0.875 0.0580569 0.5625)
(1.125 0.0580569 0.5625)
(1.375 0.0580569 0.5625)
(1.625 0.0580569 0.5625)
(1.875 0.0580569 0.5625)
(2.125 0.0580569 0.5625)
(2.375 0.0580569 0.5625)
(2.625 0.0580569 0.5625)
(2.875 0.0580569 0.5625)
(3.125 0.0580569 0.5625)
(3.375 0.0580569 0.5625)
(3.625 0.0580569 0.5625)
(3.875 0.0580569 0.5625)
(4.125 0.0580569 0.5625)
(4.375 0.0580569 0.5625)
(4.625 0.0580569 0.5625)
(4.875 0.0580569 0.5625)
(5.125 0.0580569 0.5625)
(5.375 0.0580569 0.5625)
(5.625 0.0580569 0.5625)
(5.875 0.0580569 0.5625)
(6.125 0.0580569 0.5625)
(6.375 0.0580569 0.5625)
(6.625 0.0580569 0.5625)
(6.875 0.0580569 0.5625)
(7.125 0.0580569 0.5625)
(7.375 0.0580569 0.5625)
(7.625 0.0580569 0.5625)
(7.875 0.0580569 0.5625)
(0.125 0.107078 0.5625)
(0.375 0.107078 0.5625)
(0.625 0.107078 0.5625)
(0.875 0.107078 0.5625)
(1.125 0.107078 0.5625)
(1.375 0.107078 0.5625)
(1.625 0.107078 0.5625)
(1.875 0.107078 0.5625)
(2.125 0.107078 0.5625)
(2.375 0.107078 0.5625)
(2.625 0.107078 0.5625)
(2.875 0.107078 0.5625)
(3.125 0.107078 0.5625)
(3.375 0.107078 0.5625)
(3.625 0.107078 0.5625)
(3.875 0.107078 0.5625)
(4.125 0.107078 0.5625)
(4.375 0.107078 0.5625)
(4.625 0.107078 0.5625)
(4.875 0.107078 0.5625)
(5.125 0.107078 0.5625)
(5.375 0.107078 0.5625)
(5.625 0.107078 0.5625)
(5.875 0.107078 0.5625)
(6.125 0.107078 0.5625)
(6.375 0.107078 0.5625)
(6.625 0.107078 0.5625)
(6.875 0.107078 0.5625)
(7.125 0.107078 0.5625)
(7.375 0.107078 0.5625)
(7.625 0.107078 0.5625)
(7.875 0.107078 0.5625)
(0.125 0.184719 0.5625)
(0.375 0.184719 0.5625)
(0.625 0.184719 0.5625)
(0.875 0.184719 0.5625)
(1.125 0.184719 0.5625)
(1.375 0.184719 0.5625)
(1.625 0.184719 0.5625)
(1.875 0.184719 0.5625)
(2.125 0.184719 0.5625)
(2.375 0.184719 0.5625)
(2.625 0.184719 0.5625)
(2.875 0.184719 0.5625)
(3.125 0.184719 0.5625)
(3.375 0.184719 0.5625)
(3.625 0.184719 0.5625)
(3.875 0.184719 0.5625)
(4.125 0.184719 0.5625)
(4.375 0.184719 0.5625)
(4.625 0.184719 0.5625)
(4.875 0.184719 0.5625)
(5.125 0.184719 0.5625)
(5.375 0.184719 0.5625)
(5.625 0.184719 0.5625)
(5.875 0.184719 0.5625)
(6.125 0.184719 0.5625)
(6.375 0.184719 0.5625)
(6.625 0.184719 0.5625)
(6.875 0.184719 0.5625)
(7.125 0.184719 0.5625)
(7.375 0.184719 0.5625)
(7.625 0.184719 0.5625)
(7.875 0.184719 0.5625)
(0.125 0.307689 0.5625)
(0.375 0.307689 0.5625)
(0.625 0.307689 0.5625)
(0.875 0.307689 0.5625)
(1.125 0.307689 0.5625)
(1.375 0.307689 0.5625)
(1.625 0.307689 0.5625)
(1.875 0.307689 0.5625)
(2.125 0.307689 0.5625)
(2.375 0.307689 0.5625)
(2.625 0.307689 0.5625)
(2.875 0.307689 0.5625)
(3.125 0.307689 0.5625)
(3.375 0.307689 0.5625)
(3.625 0.307689 0.5625)
(3.875 0.307689 0.5625)